LAMMPS (29 Sep 2021)
# FCC Argon LJ: e=119.8 kB, sigma = 3.405, rcut=8.51 (10.1103/PhysRevB.54.340)

units          metal
boundary       p p p
atom_style     atomic

read_data      fcc_lj_Ar_box-zeroed_shifted_DATA
Reading data file ...
  orthogonal box = (0.0000000 0.0000000 0.0000000) to (21.105599 21.105599 126.63359)
  reading atoms ...
  1536 atoms

pair_style     lj/cut 8.51
pair_coeff     * * 0.01032 3.405

variable T        equal  80
variable Tdamp    equal  0.1
variable Tseed    equal  12280329
variable dumpf    equal  100000

velocity     all create 80 12280329 mom yes rot yes dist gaussian

thermo       1000
thermo_style custom step temp pe ke etotal press

dump           run_dump all xyz 100000 dump_run.xyz
dump_modify    run_dump sort id element Ar format line "%s %21.16f %21.16f %21.16f"

dump           run_forces all custom 100000 dump_run_forces.custom id type x y z fx fy fz
dump_modify    run_forces sort id element Ar format line "%4d %1d %21.16f %21.16f %21.16f %21.16f %21.16f %21.16f"

fix          nvt all nvt temp 80 80 0.1
run 1000000
  update every 1 steps, delay 10 steps, check yes
Step Temp PotEng KinEng TotEng Press
0           80    -128.3913    15.873146   -112.51816     300.5646
Averages over the last 501 of 1001 rows, steps 500000 to 1000000:
Temp PotEng KinEng TotEng Press
79.898 -112.78 15.8529 -96.9272 2547.9
Loop time of 114.608 on 40 procs for 1000000 steps with 1536 atoms

dump           final_dump all xyz 1 dump_final.xyz
dump_modify    final_dump sort id element Ar format line "%s %21.16f %21.16f %21.16f"

dump           final_forces all custom 1 dump_final_forces.custom id type x y z fx fy fz
dump_modify    final_forces sort id element Ar format line "%4d %1d %21.16f %21.16f %21.16f %21.16f %21.16f %21.16f"

run            0
Step Temp PotEng KinEng TotEng Press
1000000    82.671814   -112.96111    16.403272   -96.557839    2532.9088
Loop time of 6.18815e-05 on 40 procs for 0 steps with 1536 atoms
